-------------------------------------------------------
          Amber 21 SANDER                              2021
          -------------------------------------------------------

  [-O]verwriting output

File Assignments:

 Here is the input file:

A NVT simulation for common production-level simulations
 &cntrl
    imin=0,        ! No minimization
    irest=1,       ! This IS a restart of an old MD simulation
    ntx=5,         ! So our inpcrd file has velocities

    ! Boundary conditions
    ntb=0,         ! Periodic boundaries for constant volume
    ntp=0,         ! No pressure control

    ! Temperature control
    ntt=3,        ! SINR Mid
    gamma_ln=5.0,  ! Friction coefficient (ps^-1)
    temp0=300.0,   ! Target temperature
    ig=-1,         ! Random number seed

    ! Potential energy control
    cut=999.0,      ! nonbonded cutoff, in Angstroms

    ! MD settings
    nstlim=10000,   ! 1 ps total
    dt=0.001,      ! time step (ps)

    ! SHAKE
    ntc=1,         ! Constrain bonds containing hydrogen
    ntf=1,         ! Do not calculate forces of bonds containing hydrogen
    tol=0.000001,  ! Shake tolerance

    ! Control how often information is printed
    ntpr=100,      ! Print energies every 100 steps
    ntwx=100,      ! Print coordinates every 100 steps to the trajectory
    ntwr=100,     ! Print a restart file every 5K steps (can be less frequent)
!   ntwv=-1,       ! Uncomment to also print velocities to trajectory
!   ntwf=-1,       ! Uncomment to also print forces to trajectory
    ntxo=2,        ! Write NetCDF format
    ioutfm=1,      ! Write NetCDF format (always do this!)

    ! Restraints
    nmropt=1,      ! Turn on restraints

    ! QM/MM
    ifqnt=1,       ! Turn on QM/MM
 /

 &ewald
    dsum_tol=0.000001,
 /

 &qmmm
    ! QM atoms
    qmmask=':1'

    ! QM settings
    qm_theory='PM3',
    qmcharge=0,

    ! Shake
    qmshake=0,     ! Use Shake for QM atoms
    ! Potential energy control
    qmcut=999.0,    ! Cutoff for QM/MM electrostatic interactions
    writepdb=1,    ! Check QM atoms
 /

 &wt type='DUMPFREQ', istep1=10 /
 &wt type='END' /
 DISANG=cv.rst
 DUMPAVE=step6.00_equilibration.cv

--------------------------------------------------------------------------------
   1.  RESOURCE   USE:
--------------------------------------------------------------------------------

 NATOM  =      14 NTYPES =       6 NBONH =       8 MBONA  =       5
 NTHETH =      17 MTHETA =       4 NPHIH =      33 MPHIA  =       3
 NHPARM =       0 NPARM  =       0 NNB   =      60 NRES   =       1
 NBONA  =       5 NTHETA =       4 NPHIA =       3 NUMBND =       8
 NUMANG =      13 NPTRA  =      11 NATYP =       7 NPHB   =       0
 IFBOX  =       0 NMXRS  =      14 IFCAP =       0 NEXTRA =       0
 NCOPY  =       0

LOADING THE QUANTUM ATOMS AS GROUPS
     Mask :1; matches    14 atoms
Note: ig = -1. Setting random seed to   390800 based on wallclock time in microseconds.

--------------------------------------------------------------------------------
   2.  CONTROL  DATA  FOR  THE  RUN
--------------------------------------------------------------------------------

UNL

General flags:
     imin    =       0, nmropt  =       1

Nature and format of input:
     ntx     =       5, irest   =       1, ntrx    =       1

Nature and format of output:
     ntxo    =       2, ntpr    =     100, ntrx    =       1, ntwr    =     100
     iwrap   =       0, ntwx    =     100, ntwv    =       0, ntwe    =       0
     ioutfm  =       1, ntwprt  =       0, idecomp =       0, rbornstat=      0

Potential function:
     ntf     =       1, ntb     =       0, igb     =       0, nsnb    =      25
     ipol    =       0, gbsa    =       0, iesp    =       0
     dielc   =   1.00000, cut     = 999.00000, intdiel =   1.00000

Frozen or restrained atoms:
     ibelly  =       0, ntr     =       0

Molecular dynamics:
     nstlim  =     10000, nscm    =      1000, nrespa  =         1
     t       =   0.00000, dt      =   0.00100, vlimit  =  20.00000

Langevin dynamics temperature regulation:
     ig      =  390800
     temp0   = 300.00000, tempi   =   0.00000, gamma_ln=   5.00000

NMR refinement options:
     iscale  =       0, noeskp  =       1, ipnlty  =       1, mxsub   =       1
     scalm   = 100.00000, pencut  =   0.10000, tausw   =   0.10000

QMMM options:
             ifqnt = True       nquant =       14
              qmgb =        0  qmcharge =        0   adjust_q =        2
              spin =        1     qmcut = 999.0000    qmshake =        0
          qmmm_int =        1
     lnk_atomic_no =        1   lnk_dis =   1.0900 lnk_method =        1
          qm_theory =     PM3 verbosity =        0
            qmqmdx = Analytical
      tight_p_conv = False (converge density to 0.05xSqrt[SCFCRT])
           scfconv = 0.100E-07  itrmax =     1000
      printcharges = False      printdipole = False      peptide_corr = False
    qmmmrij_incore = True
  qmqm_erep_incore = True
       pseudo_diag = True pseudo_diag_criteria =   0.0500
      diag_routine =        0
          qm_ewald =        0 qm_pme = False

--------------------------------------------------------------------------------
   3.  ATOMIC COORDINATES AND VELOCITIES
--------------------------------------------------------------------------------

UNL
 begin time read from input coords =     2.500 ps

           Begin reading energy term weight changes/NMR restraints
 WEIGHT CHANGES:
 DUMPFREQ     10      0    0.000000    0.000000      0      0
                         ** No weight changes given **

 RESTRAINTS:
 Requested file redirections:
  DISANG    = cv.rst
  DUMPAVE   = step6.00_equilibration.cv
 Restraints will be read from file: cv.rst
Here are comments from the DISANG input file:
# r1 - r2 (CC - CO bond)

                       Number of restraints read =     1

                  Done reading weight changes/NMR restraints

 Number of triangulated 3-point waters found:        0

     Sum of charges from parm topology file =   0.00100000
     Forcing neutrality...
 ---------------------------------------------------

     eedmeth=4: Setting switch to one everywhere

 ---------------------------------------------------

QMMM: Link Atom Information
QMMM: ------------------------------------------------------------------------
QMMM: nlink =     0
QMMM: ------------------------------------------------------------------------

  QMMM: QM Region Cartesian Coordinates (*=link atom)
  QMMM: QM_NO.   MM_NO.  ATOM         X         Y         Z
  QMMM:     1        1      O       -1.1508    3.2051   -2.1431
  QMMM:     2        2      C       -1.5122    2.0906   -2.0176
  QMMM:     3        3      C       -2.9165    1.5481   -2.1728
  QMMM:     4        4      C       -3.9623    2.4669   -1.5378
  QMMM:     5        5      C       -4.1120    3.7733   -2.2322
  QMMM:     6        6      C       -3.3816    4.8794   -1.9761
  QMMM:     7        7      H       -0.6833    1.3564   -1.9733
  QMMM:     8        8      H       -2.9909    0.6824   -1.5768
  QMMM:     9        9      H       -3.1318    1.2800   -3.2450
  QMMM:    10       10      H       -3.6384    2.6731   -0.5132
  QMMM:    11       11      H       -4.9807    1.9861   -1.5455
  QMMM:    12       12      H       -4.7813    3.6155   -3.1156
  QMMM:    13       13      H       -2.7304    5.0389   -1.1252
  QMMM:    14       14      H       -3.5116    5.6870   -2.7119

--------------------------------------------------------------------------------
  3.1 QM CALCULATION INFO
--------------------------------------------------------------------------------

QMMM: SINGLET STATE CALCULATION
QMMM: RHF CALCULATION, NO. OF DOUBLY OCCUPIED LEVELS = 17

--------------------------------------------------------------------------------
   4.  RESULTS
 NSTEP =      100   TIME(PS) =       2.600  TEMP(K) =   307.77  PRESS =     0.0
 Etot   =        -2.6290  EKtot   =        12.8434  EPtot      =       -15.4724
 BOND   =         0.0000  ANGLE   =         0.0000  DIHED      =         0.0000
 1-4 NB =         0.0000  1-4 EEL =         0.0000  VDWAALS    =         0.0000
 EELEC  =         0.0000  EHBOND  =         0.0000  RESTRAINT  =         0.0890
 PM3ESCF=       -15.5613
 EAMBER (non-restraint)  =       -15.5613
 ------------------------------------------------------------------------------

      A V E R A G E S   O V E R   10000 S T E P S

 NSTEP =    10000   TIME(PS) =      12.500  TEMP(K) =   294.64  PRESS =     0.0
 Etot   =        -1.0653  EKtot   =        12.2958  EPtot      =       -13.3612
 BOND   =         0.0000  ANGLE   =         0.0000  DIHED      =         0.0000
 1-4 NB =         0.0000  1-4 EEL =         0.0000  VDWAALS    =         0.0000
 EELEC  =         0.0000  EHBOND  =         0.0000  RESTRAINT  =         0.4104
 PM3ESCF=       -13.7715
 EAMBER (non-restraint)  =       -13.7715
 ------------------------------------------------------------------------------

      R M S  F L U C T U A T I O N S

 NSTEP =    10000   TIME(PS) =      12.500  TEMP(K) =    64.89  PRESS =     0.0
 Etot   =         3.8048  EKtot   =         2.7077  EPtot      =         2.5304
 BOND   =         0.0000  ANGLE   =         0.0000  DIHED      =         0.0000
 1-4 NB =         0.0000  1-4 EEL =         0.0000  VDWAALS    =         0.0000
 EELEC  =         0.0000  EHBOND  =         0.0000  RESTRAINT  =         0.5255
 PM3ESCF=         2.5357
 EAMBER (non-restraint)  =         2.0049
 ------------------------------------------------------------------------------
