-------------------------------------------------------
          Amber 22 SANDER                              2022
          -------------------------------------------------------

  [-O]verwriting output

File Assignments:

 Here is the input file:

A NVT simulation for common production-level simulations
 &cntrl
    imin=0,        ! No minimization
    irest=1,       ! This IS a restart of an old MD simulation
    ntx=5,         ! So our inpcrd file has velocities

    ! Temperature control
    ntt=3,         ! Langevin dynamics
    gamma_ln=1.0,  ! Friction coefficient (ps^-1)
    temp0=300,   ! Target temperature

    ! Potential energy control
    cut=9.0,       ! nonbonded cutoff, in Angstroms

    ! MD settings
    nstlim=10000,  ! MD steps
    dt=0.001,      ! time step (ps)

    ! SHAKE
    ntc=2,         ! Constrain bonds containing hydrogen
    ntf=2,         ! Do not calculate forces of bonds containing hydrogen

    ! Control how often information is printed
    ntpr=1000,     ! Print energies every ntpr steps
    ntwx=1000,     ! Print coordinates every ntwx steps to the trajectory
    ntwr=1000,     ! Print a restart file every 10K steps (can be less frequent)
    ntxo=2,        ! Write NetCDF format
    ioutfm=1,      ! Write NetCDF format (always do this!)

    ! Wrap coordinates when printing them to the same unit cell
    iwrap=1,

    ! Restraints
    nmropt=1,      ! Turn on restraints

 /

 &wt type='DUMPFREQ', istep1=10 / ! Print restraint value every 10 steps
 &wt type='END' /
 DISANG=cv0.rst
 DUMPAVE=prod0.cv
 /

--------------------------------------------------------------------------------
   1.  RESOURCE   USE:
--------------------------------------------------------------------------------

 getting box info from netcdf restart file
 NATOM  =    5285 NTYPES =       9 NBONH =    5265 MBONA  =      18
 NTHETH =      50 MTHETA =      22 NPHIH =      86 MPHIA  =      48
 NHPARM =       0 NPARM  =       0 NNB   =    7186 NRES   =    1753
 NBONA  =      18 NTHETA =      22 NPHIA =      48 NUMBND =      13
 NUMANG =      21 NPTRA  =      14 NATYP =      10 NPHB   =       0
 IFBOX  =       1 NMXRS  =      10 IFCAP =       0 NEXTRA =       0
 NCOPY  =       0

     BOX TYPE: RECTILINEAR

--------------------------------------------------------------------------------
   2.  CONTROL  DATA  FOR  THE  RUN
--------------------------------------------------------------------------------

ACE

General flags:
     imin    =       0, nmropt  =       1

Nature and format of input:
     ntx     =       5, irest   =       1, ntrx    =       1

Nature and format of output:
     ntxo    =       2, ntpr    =    1000, ntrx    =       1, ntwr    =    1000
     iwrap   =       1, ntwx    =    1000, ntwv    =       0, ntwe    =       0
     ioutfm  =       1, ntwprt  =       0, idecomp =       0, rbornstat=      0

Potential function:
     ntf     =       2, ntb     =       1, igb     =       0, nsnb    =      25
     ipol    =       0, gbsa    =       0, iesp    =       0
     dielc   =   1.00000, cut     =   9.00000, intdiel =   1.00000

Frozen or restrained atoms:
     ibelly  =       0, ntr     =       0

Molecular dynamics:
     nstlim  =     10000, nscm    =      1000, nrespa  =         1
     t       =   0.00000, dt      =   0.00100, vlimit  =  20.00000

Langevin dynamics temperature regulation:
     ig      =   71277
     temp0   = 300.00000, tempi   =   0.00000, gamma_ln=   1.00000

SHAKE:
     ntc     =       2, jfastw  =       0
     tol     =   0.00001

NMR refinement options:
     iscale  =       0, noeskp  =       1, ipnlty  =       1, mxsub   =       1
     scalm   = 100.00000, pencut  =   0.10000, tausw   =   0.10000

Ewald parameters:
     verbose =       0, ew_type =       0, nbflag  =       1, use_pme =       1
     vdwmeth =       1, eedmeth =       1, netfrc  =       1
     Box X =   41.545   Box Y =   41.891   Box Z =   41.935
     Alpha =   90.000   Beta  =   90.000   Gamma =   90.000
     NFFT1 =   48       NFFT2 =   45       NFFT3 =   45
     Cutoff=    9.000   Tol   =0.100E-04
     Ewald Coefficient =  0.30768
     Interpolation order =    4

--------------------------------------------------------------------------------
   3.  ATOMIC COORDINATES AND VELOCITIES
--------------------------------------------------------------------------------

ACE
 begin time read from input coords =    10.000 ps

           Begin reading energy term weight changes/NMR restraints
 WEIGHT CHANGES:
 DUMPFREQ     10      0    0.000000    0.000000      0      0
                         ** No weight changes given **

 RESTRAINTS:
 Requested file redirections:
  DISANG    = cv0.rst
  DUMPAVE   = prod0.cv
 Restraints will be read from file: cv0.rst
Here are comments from the DISANG input file:

                       Number of restraints read =     1

                  Done reading weight changes/NMR restraints

 Number of triangulated 3-point waters found:     1747

     Sum of charges from parm topology file =  -0.00000000
     Forcing neutrality...

--------------------------------------------------------------------------------
   4.  RESULTS
 NSTEP =     1000   TIME(PS) =      11.000  TEMP(K) =   299.15  PRESS =     0.0
 Etot   =    -12956.9203  EKtot   =      3147.7217  EPtot      =    -16104.6420
 BOND   =         4.3859  ANGLE   =        16.1933  DIHED      =         9.6912
 1-4 NB =         7.7172  1-4 EEL =        96.7691  VDWAALS    =      2394.6232
 EELEC  =    -18635.1763  EHBOND  =         0.0000  RESTRAINT  =         0.2193
 EAMBER (non-restraint)  =    -16104.8613
 CMAP   =         0.9352
 Ewald error estimate:   0.5511E-04
 ------------------------------------------------------------------------------

      A V E R A G E S   O V E R   10000 S T E P S

 NSTEP =    10000   TIME(PS) =      20.000  TEMP(K) =   299.52  PRESS =     0.0
 Etot   =    -13064.8038  EKtot   =      3151.6443  EPtot      =    -16216.4481
 BOND   =         6.8121  ANGLE   =        18.0889  DIHED      =         9.4734
 1-4 NB =         6.3754  1-4 EEL =        93.1608  VDWAALS    =      2429.6258
 EELEC  =    -18781.3705  EHBOND  =         0.0000  RESTRAINT  =         0.8803
 EAMBER (non-restraint)  =    -16217.3284
 CMAP   =         0.5056
 Ewald error estimate:   0.1358E-03
 ------------------------------------------------------------------------------

      R M S  F L U C T U A T I O N S

 NSTEP =    10000   TIME(PS) =      20.000  TEMP(K) =     3.82  PRESS =     0.0
 Etot   =        83.0257  EKtot   =        40.1686  EPtot      =        74.1561
 BOND   =         2.1781  ANGLE   =         3.1503  DIHED      =         1.5789
 1-4 NB =         1.0659  1-4 EEL =         3.0092  VDWAALS    =        77.5782
 EELEC  =       132.3916  EHBOND  =         0.0000  RESTRAINT  =         0.9221
 EAMBER (non-restraint)  =        73.2340
 CMAP   =         0.7759
 Ewald error estimate:   0.9943E-04
 ------------------------------------------------------------------------------
