-------------------------------------------------------
          Amber 21 SANDER                              2021
          -------------------------------------------------------

  [-O]verwriting output

File Assignments:

 Here is the input file:

A NVT simulation for common production-level simulations
 &cntrl
    imin=0,        ! No minimization
    irest=1,       ! This IS a restart of an old MD simulation
    ntx=5,         ! So our inpcrd file has velocities

    ! Boundary conditions
    ntb=0,         ! Periodic boundaries for constant volume
    ntp=0,         ! No pressure control

    ! Temperature control
    ntt=3,        ! SINR Mid
    gamma_ln=5.0,  ! Friction coefficient (ps^-1)
    temp0=300.0,   ! Target temperature
    ig=-1,         ! Random number seed

    ! Potential energy control
    cut=999.0,      ! nonbonded cutoff, in Angstroms

    ! MD settings
    nstlim=10000,   ! 1 ps total
    dt=0.001,      ! time step (ps)

    ! SHAKE
    ntc=1,         ! Constrain bonds containing hydrogen
    ntf=1,         ! Do not calculate forces of bonds containing hydrogen
    tol=0.000001,  ! Shake tolerance

    ! Control how often information is printed
    ntpr=100,      ! Print energies every 100 steps
    ntwx=100,      ! Print coordinates every 100 steps to the trajectory
    ntwr=100,     ! Print a restart file every 5K steps (can be less frequent)
!   ntwv=-1,       ! Uncomment to also print velocities to trajectory
!   ntwf=-1,       ! Uncomment to also print forces to trajectory
    ntxo=2,        ! Write NetCDF format
    ioutfm=1,      ! Write NetCDF format (always do this!)

    ! Restraints
    nmropt=1,      ! Turn on restraints

    ! QM/MM
    ifqnt=1,       ! Turn on QM/MM
 /

 &ewald
    dsum_tol=0.000001,
 /

 &qmmm
    ! QM atoms
    qmmask=':1'

    ! QM settings
    qm_theory='PM3',
    qmcharge=0,

    ! Shake
    qmshake=0,     ! Use Shake for QM atoms
    ! Potential energy control
    qmcut=999.0,    ! Cutoff for QM/MM electrostatic interactions
    writepdb=1,    ! Check QM atoms
 /

 &wt type='DUMPFREQ', istep1=10 /
 &wt type='END' /
 DISANG=cv.rst
 DUMPAVE=step6.00_equilibration.cv

--------------------------------------------------------------------------------
   1.  RESOURCE   USE:
--------------------------------------------------------------------------------

 NATOM  =      14 NTYPES =       6 NBONH =       8 MBONA  =       5
 NTHETH =      17 MTHETA =       4 NPHIH =      33 MPHIA  =       3
 NHPARM =       0 NPARM  =       0 NNB   =      60 NRES   =       1
 NBONA  =       5 NTHETA =       4 NPHIA =       3 NUMBND =       8
 NUMANG =      13 NPTRA  =      11 NATYP =       7 NPHB   =       0
 IFBOX  =       0 NMXRS  =      14 IFCAP =       0 NEXTRA =       0
 NCOPY  =       0

LOADING THE QUANTUM ATOMS AS GROUPS
     Mask :1; matches    14 atoms
Note: ig = -1. Setting random seed to    95684 based on wallclock time in microseconds.

--------------------------------------------------------------------------------
   2.  CONTROL  DATA  FOR  THE  RUN
--------------------------------------------------------------------------------

UNL

General flags:
     imin    =       0, nmropt  =       1

Nature and format of input:
     ntx     =       5, irest   =       1, ntrx    =       1

Nature and format of output:
     ntxo    =       2, ntpr    =     100, ntrx    =       1, ntwr    =     100
     iwrap   =       0, ntwx    =     100, ntwv    =       0, ntwe    =       0
     ioutfm  =       1, ntwprt  =       0, idecomp =       0, rbornstat=      0

Potential function:
     ntf     =       1, ntb     =       0, igb     =       0, nsnb    =      25
     ipol    =       0, gbsa    =       0, iesp    =       0
     dielc   =   1.00000, cut     = 999.00000, intdiel =   1.00000

Frozen or restrained atoms:
     ibelly  =       0, ntr     =       0

Molecular dynamics:
     nstlim  =     10000, nscm    =      1000, nrespa  =         1
     t       =   0.00000, dt      =   0.00100, vlimit  =  20.00000

Langevin dynamics temperature regulation:
     ig      =   95684
     temp0   = 300.00000, tempi   =   0.00000, gamma_ln=   5.00000

NMR refinement options:
     iscale  =       0, noeskp  =       1, ipnlty  =       1, mxsub   =       1
     scalm   = 100.00000, pencut  =   0.10000, tausw   =   0.10000

QMMM options:
             ifqnt = True       nquant =       14
              qmgb =        0  qmcharge =        0   adjust_q =        2
              spin =        1     qmcut = 999.0000    qmshake =        0
          qmmm_int =        1
     lnk_atomic_no =        1   lnk_dis =   1.0900 lnk_method =        1
          qm_theory =     PM3 verbosity =        0
            qmqmdx = Analytical
      tight_p_conv = False (converge density to 0.05xSqrt[SCFCRT])
           scfconv = 0.100E-07  itrmax =     1000
      printcharges = False      printdipole = False      peptide_corr = False
    qmmmrij_incore = True
  qmqm_erep_incore = True
       pseudo_diag = True pseudo_diag_criteria =   0.0500
      diag_routine =        0
          qm_ewald =        0 qm_pme = False

--------------------------------------------------------------------------------
   3.  ATOMIC COORDINATES AND VELOCITIES
--------------------------------------------------------------------------------

UNL
 begin time read from input coords =     5.500 ps

           Begin reading energy term weight changes/NMR restraints
 WEIGHT CHANGES:
 DUMPFREQ     10      0    0.000000    0.000000      0      0
                         ** No weight changes given **

 RESTRAINTS:
 Requested file redirections:
  DISANG    = cv.rst
  DUMPAVE   = step6.00_equilibration.cv
 Restraints will be read from file: cv.rst
Here are comments from the DISANG input file:
# r1 - r2 (CC - CO bond)

                       Number of restraints read =     1

                  Done reading weight changes/NMR restraints

 Number of triangulated 3-point waters found:        0

     Sum of charges from parm topology file =   0.00100000
     Forcing neutrality...
 ---------------------------------------------------

     eedmeth=4: Setting switch to one everywhere

 ---------------------------------------------------

QMMM: Link Atom Information
QMMM: ------------------------------------------------------------------------
QMMM: nlink =     0
QMMM: ------------------------------------------------------------------------

  QMMM: QM Region Cartesian Coordinates (*=link atom)
  QMMM: QM_NO.   MM_NO.  ATOM         X         Y         Z
  QMMM:     1        1      O       -3.3828    2.7476   -1.3154
  QMMM:     2        2      C       -2.9725    1.6228   -1.4880
  QMMM:     3        3      C       -1.5905    1.2680   -1.8844
  QMMM:     4        4      C       -1.2992    2.0929   -3.4521
  QMMM:     5        5      C       -1.8879    3.4251   -3.2738
  QMMM:     6        6      C       -3.2334    3.5508   -3.0721
  QMMM:     7        7      H       -3.8127    0.8866   -1.4623
  QMMM:     8        8      H       -1.5245    0.1759   -2.0584
  QMMM:     9        9      H       -0.8129    1.6851   -1.3029
  QMMM:    10       10      H       -1.8583    1.4169   -4.1860
  QMMM:    11       11      H       -0.1888    2.1645   -3.6326
  QMMM:    12       12      H       -1.2419    4.1837   -2.9761
  QMMM:    13       13      H       -4.0821    3.0219   -3.5984
  QMMM:    14       14      H       -3.6451    4.5268   -2.8720

--------------------------------------------------------------------------------
  3.1 QM CALCULATION INFO
--------------------------------------------------------------------------------

QMMM: SINGLET STATE CALCULATION
QMMM: RHF CALCULATION, NO. OF DOUBLY OCCUPIED LEVELS = 17

--------------------------------------------------------------------------------
   4.  RESULTS
 NSTEP =      100   TIME(PS) =       5.600  TEMP(K) =   335.99  PRESS =     0.0
 Etot   =        45.6742  EKtot   =        14.0210  EPtot      =        31.6531
 BOND   =         0.0000  ANGLE   =         0.0000  DIHED      =         0.0000
 1-4 NB =         0.0000  1-4 EEL =         0.0000  VDWAALS    =         0.0000
 EELEC  =         0.0000  EHBOND  =         0.0000  RESTRAINT  =         8.8201
 PM3ESCF=        22.8331
 EAMBER (non-restraint)  =        22.8331
 ------------------------------------------------------------------------------

      A V E R A G E S   O V E R   10000 S T E P S

 NSTEP =    10000   TIME(PS) =      15.500  TEMP(K) =   293.68  PRESS =     0.0
 Etot   =        39.2609  EKtot   =        12.2555  EPtot      =        27.0054
 BOND   =         0.0000  ANGLE   =         0.0000  DIHED      =         0.0000
 1-4 NB =         0.0000  1-4 EEL =         0.0000  VDWAALS    =         0.0000
 EELEC  =         0.0000  EHBOND  =         0.0000  RESTRAINT  =         6.6192
 PM3ESCF=        20.3862
 EAMBER (non-restraint)  =        20.3862
 ------------------------------------------------------------------------------

      R M S  F L U C T U A T I O N S

 NSTEP =    10000   TIME(PS) =      15.500  TEMP(K) =    61.86  PRESS =     0.0
 Etot   =         3.5066  EKtot   =         2.5813  EPtot      =         2.6361
 BOND   =         0.0000  ANGLE   =         0.0000  DIHED      =         0.0000
 1-4 NB =         0.0000  1-4 EEL =         0.0000  VDWAALS    =         0.0000
 EELEC  =         0.0000  EHBOND  =         0.0000  RESTRAINT  =         2.6255
 PM3ESCF=         3.6721
 EAMBER (non-restraint)  =         0.0107
 ------------------------------------------------------------------------------
