-------------------------------------------------------
          Amber 22 SANDER                              2022
          -------------------------------------------------------

  [-O]verwriting output

File Assignments:

 Here is the input file:

A NPT simulation for common production-level simulations
 &cntrl
  imin=0,        ! Turn off minimization
  irest=1,       ! This is a restart of an old MD simulation
  ntx=5,         ! So our inpcrd file has velocities

  ! Temperature control
  ntt=3,         ! Langevin dynamics
  gamma_ln=2.0,  ! Friction coefficient (ps^-1)
  temp0=300,     ! Target temperature

  ! Potential energy control
  cut=8.0,       ! nonbonded cutoff, in angstroms

  ! MD settings
  nstlim=50000,  ! MD steps
  dt=0.002,      ! Time step (ps)

  ! SHAKE
  ntc=2,         ! Constrain bonds containing hydrogen
  ntf=2,         ! Do not calculate forces of bonds containing hydrogen

  ! Control how often information is printed
  ntwx=100,      ! Print coordinates every ntwx steps to the trajectory
  ntpr=100,
  ntwx=100,

  ! Constant pressure control.
  barostat=1,    ! Berendsen barostat... change to 2 for MC
  ntp=1,         ! 1=isotropic, 2=anisotropic, 3=semi-isotropic w/ surften
  pres0=1.0,     ! Target external pressure, in bar
  taup=1.0,      ! Pressure relaxation time (in ps)
 /

--------------------------------------------------------------------------------
   1.  RESOURCE   USE:
--------------------------------------------------------------------------------

 getting box info from netcdf restart file
 NATOM  =    4150 NTYPES =       9 NBONH =    4140 MBONA  =       9
 NTHETH =      25 MTHETA =      11 NPHIH =      43 MPHIA  =      24
 NHPARM =       0 NPARM  =       0 NNB   =    5603 NRES   =    1379
 NBONA  =       9 NTHETA =      11 NPHIA =      24 NUMBND =      13
 NUMANG =      21 NPTRA  =      14 NATYP =      10 NPHB   =       0
 IFBOX  =       1 NMXRS  =      10 IFCAP =       0 NEXTRA =       0
 NCOPY  =       0

     BOX TYPE: RECTILINEAR

--------------------------------------------------------------------------------
   2.  CONTROL  DATA  FOR  THE  RUN
--------------------------------------------------------------------------------

ACE

General flags:
     imin    =       0, nmropt  =       0

Nature and format of input:
     ntx     =       5, irest   =       1, ntrx    =       1

Nature and format of output:
     ntxo    =       2, ntpr    =     100, ntrx    =       1, ntwr    =   50000
     iwrap   =       0, ntwx    =     100, ntwv    =       0, ntwe    =       0
     ioutfm  =       1, ntwprt  =       0, idecomp =       0, rbornstat=      0

Potential function:
     ntf     =       2, ntb     =       2, igb     =       0, nsnb    =      25
     ipol    =       0, gbsa    =       0, iesp    =       0
     dielc   =   1.00000, cut     =   8.00000, intdiel =   1.00000

Frozen or restrained atoms:
     ibelly  =       0, ntr     =       0

Molecular dynamics:
     nstlim  =     50000, nscm    =      1000, nrespa  =         1
     t       =   0.00000, dt      =   0.00200, vlimit  =  20.00000

Langevin dynamics temperature regulation:
     ig      =   71277
     temp0   = 300.00000, tempi   =   0.00000, gamma_ln=   2.00000

Pressure regulation:
     ntp     =       1
     pres0   =   1.00000, comp    =  44.60000, taup    =   1.00000

SHAKE:
     ntc     =       2, jfastw  =       0
     tol     =   0.00001

Ewald parameters:
     verbose =       0, ew_type =       0, nbflag  =       1, use_pme =       1
     vdwmeth =       1, eedmeth =       1, netfrc  =       1
     Box X =   38.861   Box Y =   39.115   Box Z =   39.119
     Alpha =   90.000   Beta  =   90.000   Gamma =   90.000
     NFFT1 =   40       NFFT2 =   40       NFFT3 =   40
     Cutoff=    8.000   Tol   =0.100E-04
     Ewald Coefficient =  0.34864
     Interpolation order =    4

--------------------------------------------------------------------------------
   3.  ATOMIC COORDINATES AND VELOCITIES
--------------------------------------------------------------------------------

ACE
 begin time read from input coords =    20.000 ps

 Number of triangulated 3-point waters found:     1376

     Sum of charges from parm topology file =  -0.00000000
     Forcing neutrality...

--------------------------------------------------------------------------------
   4.  RESULTS
 NSTEP =      100   TIME(PS) =      20.200  TEMP(K) =   308.42  PRESS =  -793.7
 Etot   =    -10097.9176  EKtot   =      2546.5196  EPtot      =    -12644.4371
 BOND   =         1.5823  ANGLE   =         7.8931  DIHED      =         4.7652
 1-4 NB =         2.5533  1-4 EEL =        45.5405  VDWAALS    =      1876.0628
 EELEC  =    -14582.4293  EHBOND  =         0.0000  RESTRAINT  =         0.0000
 EKCMT  =      1281.4831  VIRIAL  =      2293.0712  VOLUME     =     59030.3827
 CMAP   =        -0.4049
                                                    Density    =         0.7014
 Ewald error estimate:   0.5882E-04
 ------------------------------------------------------------------------------

      A V E R A G E S   O V E R   50000 S T E P S

 NSTEP =    50000   TIME(PS) =     120.000  TEMP(K) =   299.92  PRESS =   -78.0
 Etot   =    -10638.3625  EKtot   =      2476.3964  EPtot      =    -13114.7589
 BOND   =         3.2449  ANGLE   =         9.3330  DIHED      =         4.6994
 1-4 NB =         3.3731  1-4 EEL =        45.5490  VDWAALS    =      1946.2536
 EELEC  =    -15127.5788  EHBOND  =         0.0000  RESTRAINT  =         0.0000
 EKCMT  =      1235.2659  VIRIAL  =      1319.7800  VOLUME     =     43537.7342
 CMAP   =         0.3669
                                                    Density    =         0.9569
 Ewald error estimate:   0.1522E-03
 ------------------------------------------------------------------------------

      R M S  F L U C T U A T I O N S

 NSTEP =    50000   TIME(PS) =     120.000  TEMP(K) =     4.74  PRESS =   295.0
 Etot   =       152.2226  EKtot   =        39.1246  EPtot      =       147.2549
 BOND   =         1.5041  ANGLE   =         2.4456  DIHED      =         1.1007
 1-4 NB =         0.8072  1-4 EEL =         2.2345  VDWAALS    =        51.1733
 EELEC  =       166.4635  EHBOND  =         0.0000  RESTRAINT  =         0.0000
 EKCMT  =        27.3969  VIRIAL  =       291.9885  VOLUME     =      3770.9709
 CMAP   =         0.6621
                                                    Density    =         0.0682
 Ewald error estimate:   0.1135E-03
 ------------------------------------------------------------------------------
